      12
i =        0, time =        0.000, E =       -68.5326334251
  C         7.4160838756        6.7603642726        7.6560726509       -0.0004232035        0.0005827097       -0.0003122725
  C         8.5047475797        5.6298138591        7.4403647551        0.0002717987       -0.0002851664        0.0000120578
  C         7.8470437469        8.0716318747        6.9592341814        0.0002190723       -0.0001220138       -0.0001038004
  O         7.2341559780        8.2834310135        5.7032012998       -0.0000851256        0.0002120556       -0.0002668085
  O         8.6556988490        8.8397615041        7.3181740454        0.0001048259       -0.0003571931        0.0000898065
  H         7.6956970806        9.1134050404        5.4602951980        0.0003730105        0.0000373775        0.0013294180
  H         8.1991666652        4.7034500485        7.8668827009       -0.0001886835       -0.0001446755       -0.0012115144
  H         8.7107731825        5.4443866310        6.3760650572        0.0003408381        0.0009197197        0.0014520189
  H         9.4964421299        5.8637706967        7.8514454971        0.0017175142        0.0002311857        0.0007806492
  H         7.3039739480        7.1353281051        8.6712791483        0.0008641747       -0.0001586019        0.0000799454
  O         6.1621399167        6.2109131986        7.2140316329       -0.0002345895       -0.0000601644        0.0002927715
  H         6.2439534219        6.3956222912        6.2177370352       -0.0005192676        0.0002784318        0.0005415054
      12
i =     1000, time =      500.000, E =       -68.5260224454
  C         7.4653945449        6.6512288048        7.5888596732        0.0001160067       -0.0000306232        0.0004041218
  C         8.5155072096        5.5907268137        7.1411315093       -0.0001887134       -0.0002359825       -0.0003152853
  C         7.8505894408        8.0371673489        6.8817186531        0.0003588984       -0.0002198824       -0.0003420722
  O         7.4322411544        8.1637274607        5.6027807089       -0.0001493950        0.0003064131       -0.0000021999
  O         8.4392501926        8.9536577582        7.5150147129        0.0001588896        0.0001581858       -0.0000127410
  H         7.6770418084        9.0517898338        5.2339767764       -0.0009043394        0.0009196035        0.0003488251
  H         8.3373613052        4.5528976697        7.4820473941       -0.0009296385        0.0000408601        0.0015737250
  H         8.7032338183        5.6860315662        6.0770377120       -0.0002784348       -0.0005381132        0.0008753763
  H         9.4685064476        5.8548323702        7.6575771317       -0.0007181955        0.0003077793        0.0009299908
  H         7.5273060140        6.8159512950        8.7332515557       -0.0006517738       -0.0011002791        0.0002264325
  O         6.1378719146        6.4118683492        7.4825271049       -0.0000262413       -0.0001048884       -0.0000833473
  H         5.8551774605        5.7739080378        6.7579695621        0.0003278598        0.0004619485        0.0006669882
      12
i =     2000, time =     1000.000, E =       -68.5327924547
  C         7.5103436297        6.7324009674        7.6520466818        0.0000240130       -0.0003799910        0.0000695390
  C         8.4575776295        5.5646928056        7.1307925884       -0.0000326371        0.0001348559       -0.0004217725
  C         7.9161093099        8.0920073090        6.8822520371        0.0004221431        0.0002092122        0.0002732774
  O         7.4027635999        8.1651257437        5.5507604240       -0.0001468089       -0.0001863252       -0.0002280707
  O         8.4780550692        8.9457504193        7.5495341242       -0.0000100842       -0.0001408383        0.0001678905
  H         7.4941104570        9.0980118664        5.2448823016        0.0009091957       -0.0001480352        0.0010831442
  H         8.1444398560        4.6215373237        7.6821354454        0.0010776158        0.0010422787        0.0006407321
  H         8.3570229426        5.4562815964        6.0761364146       -0.0011860869       -0.0012942373       -0.0008562885
  H         9.4830957245        5.9173401861        7.4006290776       -0.0003588039        0.0004463939       -0.0005777682
  H         7.7098885152        7.0157339532        8.7036796491        0.0004506286        0.0020762970        0.0006073777
  O         6.1132710984        6.3049340546        7.4792829594       -0.0002033569        0.0002815373       -0.0000324827
  H         5.9964485384        6.1166179773        6.5275864365       -0.0001303162       -0.0010254513        0.0015293211
      12
i =     2997, time =     1498.500, E =       -68.5324280370
  C         7.3010217166        6.7657914411        7.6157898879        0.0001955205        0.0000374004        0.0000951846
  C         8.4869383101        5.8993266318        8.0079971604       -0.0001499416       -0.0003122134       -0.0001012303
  C         7.8758122789        8.0637976698        6.8724267156       -0.0002527395        0.0001656317        0.0001490772
  O         6.8764976278        8.4587112814        5.9356983002       -0.0002618375       -0.0000602058        0.0000119524
  O         8.9663875972        8.5584716682        7.0674687992        0.0002360090       -0.0001276269       -0.0000018083
  H         7.3480957167        9.1397401468        5.4174576458        0.0003667449       -0.0004710098       -0.0000980720
  H         8.1840025754        4.8658429285        8.1350372493        0.0009083451        0.0002960489       -0.0002765793
  H         9.1820405166        5.8963262570        7.1844217660        0.0015350100        0.0001690365        0.0012569275
  H         9.0584418161        6.1786773223        8.9183707698       -0.0000159468       -0.0004817845       -0.0003934715
  H         6.6596705439        7.1528788996        8.5239717672        0.0008473775        0.0019315436        0.0007622447
  O         6.3346175875        6.0598329997        6.7992548762       -0.0000928149        0.0001044021       -0.0002511295
  H         6.4661444423        6.3202871203        5.8874364848        0.0007057612        0.0011644460        0.0008982166
      12
i =     3997, time =     1998.500, E =       -68.5267496100
  C         7.3694586240        6.7721379797        7.6444443566        0.0000759392        0.0002179355       -0.0001415402
  C         8.5601111882        5.7342814234        7.5518891236       -0.0002488201       -0.0002255842       -0.0001528828
  C         7.7633592455        8.0857227890        6.9219673967        0.0000814788       -0.0002595988        0.0001090776
  O         7.1632630646        8.3510702992        5.6875690875       -0.0000077871        0.0000149172        0.0001392375
  O         8.7929944976        8.7134381898        7.2623837620       -0.0001288049        0.0000509003       -0.0000443102
  H         7.5478493375        9.2640594453        5.5756385197        0.0009337340       -0.0001826250        0.0005608254
  H         8.5684087877        5.1908239965        8.5274977799       -0.0001051321       -0.0009014231       -0.0000714986
  H         8.3974942581        5.0090631208        6.6868388756       -0.0006386597        0.0002080760       -0.0006234103
  H         9.4767621745        6.2798925777        7.5318644512       -0.0008637838        0.0010727682        0.0000357837
  H         7.3991488911        7.0288672913        8.7758833417        0.0006593538        0.0001162202        0.0007591293
  O         6.2065030916        6.1270701687        7.1077763092        0.0002398986        0.0000724503       -0.0000136295
  H         5.3952976878        6.5924533341        7.4198180156       -0.0005361803        0.0006767504        0.0002572935
      12
i =     4997, time =     2498.500, E =       -68.5378497975
  C         7.5031768520        6.7686748406        7.5971493214       -0.0003786093       -0.0002832234       -0.0000145320
  C         8.4854461063        5.5337409107        7.4046243693        0.0000713110        0.0002054617       -0.0000164215
  C         7.8192718965        8.1022288517        6.9342054229       -0.0000996581        0.0000226629       -0.0000260548
  O         7.2589622397        8.2507880328        5.6684536033        0.0001981786        0.0002117484        0.0000328426
  O         8.6040461485        8.8882931864        7.3923229689        0.0001547770       -0.0000781853       -0.0001540143
  H         7.6372730195        9.0683531619        5.2581600275       -0.0011139185        0.0007278966        0.0006440741
  H         8.2127680823        4.8280066235        8.2235939098        0.0011764424        0.0002877637       -0.0006723609
  H         8.2887805230        5.0721267719        6.4432144798       -0.0004390650       -0.0003764051        0.0008818824
  H         9.5985712064        5.7647078508        7.4340575337        0.0006647985       -0.0003971588       -0.0004992122
  H         7.4741907902        6.8992738078        8.6711209520        0.0005967414       -0.0005270352        0.0013631667
  O         6.1810304557        6.2868874584        7.2736204437       -0.0001688855       -0.0000712385        0.0000671169
  H         6.0878378801        6.2466078330        6.2686020672        0.0010623056        0.0000151841       -0.0002296289
      12
i =     5997, time =     2998.500, E =       -68.5336693770
  C         7.4661275807        6.7453211965        7.5618380929        0.0000269599       -0.0000339492        0.0002491856
  C         8.4984329766        5.6513329947        6.9928640411        0.0000297429       -0.0001527644       -0.0001640955
  C         7.8301437897        8.0586266094        6.9693878034       -0.0002302324       -0.0000267257        0.0000549028
  O         7.5428483426        8.0712660479        5.6280824846       -0.0001018090        0.0000213000       -0.0001085414
  O         8.4268133984        8.9712858110        7.5366478589        0.0001164351       -0.0000240459        0.0000090893
  H         7.9701884026        8.8615087796        5.2390714917        0.0004696969        0.0006237934        0.0010615767
  H         8.7698592432        4.9659755346        7.7877658140        0.0003955144        0.0003707051        0.0004182817
  H         8.1133214736        5.0566017168        6.2329214479       -0.0014039807        0.0004706755        0.0001222256
  H         9.4073467937        6.1295171215        6.5104033409       -0.0006701070       -0.0000789252       -0.0004936870
  H         7.6861384222        6.8105389029        8.6151514806       -0.0003053154        0.0007597970        0.0010448709
  O         6.0589782106        6.3355647073        7.5594901951        0.0001847217       -0.0000017774       -0.0001819902
  H         5.7541525498        6.2110793889        6.6340845573        0.0004038377        0.0004304260        0.0005758069
      12
i =     6994, time =     3497.000, E =       -68.5333563252
  C         7.5076420898        6.7365543218        7.5787858681        0.0000673013       -0.0002573148        0.0000827351
  C         8.5924635812        5.6119533288        7.3249321059        0.0001217397        0.0001549197       -0.0003002727
  C         7.8668207544        8.0354192955        6.9673690069        0.0001228016        0.0000353680       -0.0003168179
  O         7.2225809654        8.0996275375        5.6983301293        0.0000633061       -0.0000385082        0.0002101985
  O         8.5690954642        8.8932757412        7.4455748872       -0.0001387728        0.0000065493        0.0001066339
  H         7.7514524717        8.7812286396        5.2066094802        0.0010453196       -0.0002530619        0.0004812298
  H         8.0706237503        4.6489764596        7.4973567314       -0.0003065148        0.0004786988       -0.0001801843
  H         8.9692781662        5.6155987856        6.3266749830       -0.0005553151       -0.0012333317        0.0008603094
  H         9.3942618244        5.9006801755        8.0902389244        0.0001525740        0.0005181547       -0.0007567441
  H         7.4584347934        6.8630155945        8.6813194995        0.0002320511        0.0001927441       -0.0005458083
  O         6.1134783749        6.4223636024        7.2508464100       -0.0001794160        0.0000664308        0.0000605131
  H         5.9647728274        6.4863004191        6.3118362486       -0.0002889651        0.0005527699        0.0005567731
      12
i =     7994, time =     3997.000, E =       -68.5392016681
  C         7.3381963337        6.7422706130        7.6521773460        0.0001452055        0.0003523942       -0.0000844249
  C         8.5419886892        5.7870252882        7.5786730875       -0.0003659947        0.0001089850       -0.0002044648
  C         7.8333446302        8.0869541258        6.8918729765        0.0002280302       -0.0000825521        0.0000457678
  O         7.1407488158        8.3382232281        5.7261330652        0.0000003673        0.0001196626        0.0001504762
  O         8.7949702339        8.7373580411        7.2983699384       -0.0000116050       -0.0001564038        0.0000417806
  H         7.4315469883        9.0959233431        5.1811935882        0.0000473450       -0.0002216049        0.0003810257
  H         8.3624879972        4.9582368746        8.2679288312        0.0019476952        0.0005976070        0.0003558847
  H         8.6949544418        5.4619056496        6.5612966371       -0.0004814181        0.0003677547        0.0001193462
  H         9.4904589810        6.2508894567        7.9475115226       -0.0008630256        0.0001003776       -0.0005673456
  H         7.1249863447        7.0410624173        8.7302456346        0.0000559548        0.0007975972       -0.0016413002
  O         6.1753245805        6.1236675648        7.1346269547       -0.0000707545       -0.0003255390        0.0001239228
  H         6.2559102204        6.1481396842        6.1672313970        0.0005007426       -0.0004116596       -0.0007308462
      12
i =     8994, time =     4497.000, E =       -68.5294128752
  C         7.5419275478        6.6586410865        7.6098054602       -0.0000199679        0.0000912842        0.0000355359
  C         8.4821979945        5.5349280740        7.3503104306        0.0000362323       -0.0000738751       -0.0001608331
  C         7.8815390004        8.0530576385        6.9257596362       -0.0002222946        0.0002449311       -0.0004224935
  O         7.2875310722        8.2612184035        5.5872312661       -0.0000246607       -0.0000085759       -0.0000893848
  O         8.5264728008        8.9242210155        7.4466081315        0.0001969217       -0.0001162180        0.0001474937
  H         7.3809143140        9.2303055554        5.4688283475       -0.0004822074        0.0006137197        0.0010118390
  H         8.1210254927        4.5556548880        7.6355584096       -0.0008666440       -0.0003392571       -0.0001636237
  H         8.6585412638        5.4018859743        6.3096169199        0.0013031320       -0.0002199544       -0.0005401116
  H         9.4885748668        5.8114082640        7.6707987222       -0.0005771468       -0.0000682466        0.0000984290
  H         7.4958775762        6.9624002947        8.6289024731       -0.0015645619       -0.0003124764        0.0013494428
  O         6.1623901470        6.3542416156        7.3493958523        0.0001321054       -0.0001010220        0.0002417370
  H         6.0631564560        5.9954645677        6.4069005179       -0.0002368636        0.0008003020       -0.0000011997
