      12
i =        0, time =        0.000, E =       -68.5326334251
  C         7.4160838756        6.7603642726        7.6560726509       -0.0004038507        0.0005706627       -0.0003163937
  C         8.5047475797        5.6298138591        7.4403647551        0.0003513418       -0.0002413854        0.0000191121
  C         7.8470437469        8.0716318747        6.9592341814        0.0001810518       -0.0001102715       -0.0000986389
  O         7.2341559780        8.2834310135        5.7032012998       -0.0001173946        0.0001961736       -0.0002691117
  O         8.6556988490        8.8397615041        7.3181740454        0.0000231208       -0.0003054162        0.0001077110
  H         7.6956970806        9.1134050404        5.4602951980        0.0003018241        0.0000455823        0.0013354696
  H         8.1991666652        4.7034500485        7.8668827009       -0.0000677444       -0.0001175760       -0.0012110328
  H         8.7107731825        5.4443866310        6.3760650572        0.0004437673        0.0009768934        0.0014612669
  H         9.4964421299        5.8637706967        7.8514454971        0.0017797886        0.0003241436        0.0008013749
  H         7.3039739480        7.1353281051        8.6712791483        0.0008511702       -0.0001791412        0.0000753876
  O         6.1621399167        6.2109131986        7.2140316329       -0.0001815551       -0.0001346076        0.0002706629
  H         6.2439534219        6.3956222912        6.2177370352       -0.0004625187        0.0002108916        0.0005209816
      12
i =     1000, time =      500.000, E =       -68.5260224454
  C         7.3055003270        6.7708913813        7.6456779558        0.0002218567       -0.0002091164        0.0003048779
  C         7.0931988968        5.4440094592        6.8568978482       -0.0003101790       -0.0000020578       -0.0001790120
  C         8.2061526060        7.7332463047        6.7335663113       -0.0000649255       -0.0002741929       -0.0004404707
  O         7.5334879400        8.4104103088        5.7766513859        0.0000793089        0.0003119307        0.0000353336
  O         9.4369475807        7.8836123308        6.9573381565        0.0001760032        0.0001050687       -0.0000661572
  H         8.1416693364        9.0070643828        5.2680083044        0.0001246699        0.0011745171        0.0006486761
  H         6.4166094302        4.7020416122        7.3224720567        0.0001543472        0.0001594394        0.0018030358
  H         6.8680444382        5.6654702050        5.8191693226       -0.0001042572       -0.0004837580        0.0009384010
  H         8.0749018380        4.9140204573        6.8637071434        0.0002186850        0.0004622105        0.0011429639
  H         7.8943255928        6.5655522045        8.6212393010       -0.0010582798       -0.0004448502        0.0005901438
  O         6.2592614909        7.4496569814        8.1706331297       -0.0001462429       -0.0000989101       -0.0000789201
  H         5.3745305870        7.3371637858        7.7053486417        0.0007597363       -0.0001328020        0.0003673618
      12
i =     2000, time =     1000.000, E =       -68.5327924547
  C         7.2708417599        6.7399007277        7.5697879479       -0.0003364277       -0.0001271169        0.0001264621
  C         5.8270061018        6.5747077491        6.9212894487        0.0000562242        0.0003222273       -0.0002473235
  C         8.2573275364        7.3594993609        6.4523344443        0.0001869826       -0.0003984852       -0.0002830386
  O         8.0939448119        8.7671051007        6.2687800768       -0.0002394510        0.0002611645        0.0000847541
  O         9.1077575633        6.6078518517        6.0032013795       -0.0000307299       -0.0001026898        0.0001724636
  H         8.8703771512        9.0949844710        5.7570866795       -0.0000968523       -0.0013592370       -0.0002116910
  H         5.1542537065        6.1458388186        7.7306423565        0.0009328373       -0.0010577810       -0.0010131176
  H         5.4731040311        7.5169019247        6.5731697279       -0.0011704334        0.0010848764        0.0009692141
  H         5.9998983065        5.8727239400        6.0691238038        0.0004321917        0.0006575945       -0.0001343176
  H         7.7662188618        5.7716641388        7.7775066880        0.0020490122       -0.0004881269       -0.0007619994
  O         7.1357570259        7.5353621811        8.7999831007        0.0002440084        0.0001553117        0.0000502494
  H         6.7372100120        8.3878345068        8.5367570783       -0.0006205548       -0.0013944034        0.0010845276
      12
i =     2997, time =     1498.500, E =       -68.5324280370
  C         7.1892606329        6.9329382496        7.6714825360       -0.0001468852       -0.0000664086       -0.0001700137
  C         5.7262697082        7.2357035825        7.3904546290       -0.0000627480        0.0001281649        0.0002556188
  C         7.9999631407        7.1582854198        6.3077474947        0.0002125281       -0.0002482994        0.0001098509
  O         9.3082664605        7.5763887243        6.6892952727        0.0001180824        0.0000085773        0.0002789434
  O         7.5440891163        7.0275751814        5.1909699826       -0.0001706384        0.0001056974       -0.0000962027
  H         9.6889610264        7.8458576845        5.8306704560       -0.0004639528        0.0004366878        0.0000694186
  H         5.2044465167        7.4979817928        8.3041879083       -0.0002837783        0.0002496303       -0.0009686936
  H         5.6830883043        8.1167671941        6.7713304180       -0.0014562119       -0.0008778298       -0.0011615408
  H         5.1186190813        6.4527263435        6.8893153938       -0.0000766892        0.0004668481        0.0002159695
  H         7.4005562650        5.8256873011        8.0110585157        0.0003518480       -0.0013034693       -0.0018019755
  O         7.7288944604        7.7257270957        8.7574497845        0.0001844622        0.0001597587       -0.0000263478
  H         8.2414728380        8.4407880379        8.3799584640       -0.0001993296       -0.0010985450       -0.0011644383
      12
i =     3997, time =     1998.500, E =       -68.5267496100
  C         7.1450698976        7.1319511675        7.7149840191        0.0000894776       -0.0000129378       -0.0002624213
  C         6.5007428489        8.5634042453        7.9128500633        0.0001673651        0.0000045555        0.0002421035
  C         7.7046769478        7.0048305157        6.2750826344       -0.0001318832        0.0001464696        0.0001973507
  O         9.0928882651        7.0402110314        6.1142054424       -0.0000777734       -0.0000421422        0.0000684425
  O         6.9575893283        7.1846608093        5.2853453800        0.0001655554       -0.0001256965       -0.0000020257
  H         9.0925842743        6.8402622992        5.1374738281       -0.0009043304        0.0004966333       -0.0001793531
  H         5.6048760549        8.4083566060        8.5613945815       -0.0000653213        0.0004201456        0.0007106316
  H         7.2410962234        9.2744351444        8.4098507930        0.0007791690       -0.0002521696        0.0000117508
  H         6.1095665414        8.8852803826        6.9738514485        0.0004834205       -0.0012484828       -0.0004691510
  H         6.1938392582        6.4671961010        7.7293576318       -0.0009682668       -0.0000204058       -0.0003224074
  O         8.1256643687        6.9656067576        8.7481126001       -0.0001460684        0.0001546427       -0.0001720397
  H         8.3257208421        6.0072429920        8.8643968406        0.0001114745       -0.0008316783       -0.0001844884
      12
i =     4997, time =     2498.500, E =       -68.5378497975
  C         7.2930295459        7.4999096016        7.7173265633        0.0001322292       -0.0002256063        0.0003886299
  C         7.8917895141        8.8825842613        8.2239603979       -0.0001183856       -0.0000158958       -0.0002056661
  C         7.3668142690        7.1346330743        6.2412148252        0.0000338992       -0.0001096944        0.0000137767
  O         8.5061942975        6.4140408713        5.8937893823       -0.0000911039        0.0001079458       -0.0002335162
  O         6.5944681595        7.5598444717        5.4249328852        0.0001765834        0.0001265041       -0.0000738742
  H         8.5441754528        6.3550703329        4.9063925461       -0.0007633347       -0.0012152906        0.0001489844
  H         7.4283354602        9.0387180236        9.2259373863        0.0003725675        0.0008523846       -0.0010087349
  H         8.9667165784        8.7849715786        8.3292101537       -0.0006881202       -0.0000921394        0.0008424481
  H         7.7099097202        9.7859321659        7.5575207300        0.0005132494        0.0007076900       -0.0001583435
  H         6.2562304807        7.5498526847        8.0237000809       -0.0011023139        0.0008996242        0.0006606037
  O         7.8549809421        6.4798790273        8.5709127425       -0.0000256523       -0.0001030852        0.0001635372
  H         8.8004655343        6.2903968221        8.2700396440        0.0001494849        0.0009474511       -0.0005460129
      12
i =     5997, time =     2998.500, E =       -68.5336693770
  C         7.5340025581        7.5984070742        7.7478790011       -0.0001550158        0.0001706405        0.0001207557
  C         8.9831678580        8.2914625015        7.8239723391        0.0001896177       -0.0000100286        0.0000390676
  C         7.2456905940        7.3137673021        6.3181473252       -0.0000980632       -0.0001567030        0.0001527809
  O         8.0616866249        6.3112432750        5.8589148784        0.0000572276       -0.0001387152       -0.0000089162
  O         6.4916534823        7.9530442258        5.5877375362        0.0000469132        0.0000748170       -0.0000452117
  H         7.9847973279        6.2876302854        4.8832289058       -0.0009177764        0.0008789925       -0.0002284729
  H         8.9624305652        9.0876088514        8.5594836233       -0.0004365849        0.0005238997       -0.0002799238
  H         9.7453575030        7.6535451576        8.1267219302       -0.0008989219       -0.0010839503        0.0003970435
  H         9.3387025780        8.6545343848        6.8094150052        0.0001220689       -0.0007650856        0.0001806304
  H         6.8438996460        8.3677689915        8.0544200638       -0.0013428224        0.0002052912        0.0000241958
  O         7.2928268671        6.5465966649        8.7395969003        0.0001941705        0.0000392122       -0.0001698380
  H         7.9017399824        5.7936083657        8.5752061714       -0.0005045834        0.0005860910       -0.0002635715
      12
i =     6994, time =     3497.000, E =       -68.5333563252
  C         7.9127966415        7.6154319065        7.6962403201        0.0002140039        0.0000452538        0.0001571937
  C         9.4906279961        7.5267106491        7.6035928746       -0.0000169784       -0.0001211142       -0.0003001875
  C         7.2511053176        7.5511947523        6.3741479289        0.0000813397       -0.0002366619       -0.0002501085
  O         6.8772562334        6.1945007055        6.1522348775        0.0000913991        0.0001744817        0.0000818308
  O         7.0527397430        8.4699981610        5.6163618717       -0.0001295733        0.0000173329        0.0001208819
  H         6.7733908950        6.1433711508        5.1659934824        0.0008956492        0.0007349965       -0.0002751201
  H         9.8329171587        7.2261022784        8.6144559949       -0.0005520839       -0.0000840530       -0.0001748526
  H         9.8254279258        6.7938819742        6.9040280495        0.0004762949        0.0002858961        0.0015375598
  H         9.7534169354        8.5913449402        7.2727848625       -0.0002526113       -0.0004129037       -0.0007621737
  H         7.6939827485        8.6023409716        8.1568108328        0.0000155101       -0.0003327474       -0.0005257906
  O         7.2334201007        6.6981839333        8.6165968987       -0.0001688194       -0.0000016781        0.0000989604
  H         7.1653754652        5.8271569144        8.2363033286       -0.0006142608        0.0005148742        0.0000962956
      12
i =     7994, time =     3997.000, E =       -68.5392016681
  C         8.0923575656        7.4614496641        7.7542828022       -0.0001598173        0.0001610257       -0.0003255520
  C         9.3667512729        6.7265838773        7.3038324764       -0.0003896204       -0.0000252490        0.0001585575
  C         7.2474069811        7.6937039687        6.3891730018        0.0002100178       -0.0000411882       -0.0001179619
  O         6.0589012425        6.9948489985        6.3603545242        0.0000201942        0.0001537289       -0.0000151920
  O         7.7000306512        8.3595287631        5.4592278469        0.0000864580       -0.0000676290        0.0001041614
  H         5.5299786593        7.0349898595        5.5392201336        0.0003674175        0.0000990278        0.0002097443
  H        10.0819093019        6.7461095497        8.1298784526        0.0010923948        0.0005922690       -0.0016645634
  H         9.1229905436        5.7258162395        6.9825833757       -0.0004181556        0.0003891631        0.0002315545
  H         9.8978932994        7.2462120399        6.4679602537       -0.0008973989       -0.0002697389        0.0004127946
  H         8.3441459501        8.4961670361        8.1579272572       -0.0013029730       -0.0007477878       -0.0010642401
  O         7.4357767144        6.7423616102        8.7812262329        0.0002086281       -0.0001063853        0.0002706805
  H         6.9723313942        6.0056561280        8.3506097416        0.0001989969       -0.0008680490       -0.0004382133
      12
i =     8994, time =     4497.000, E =       -68.5294128752
  C         8.3291562291        7.0249433541        7.4543959198        0.0000060804        0.0001110257       -0.0000208608
  C         8.6391797180        5.5952674852        7.1822021210       -0.0000751137       -0.0001098534       -0.0000163732
  C         7.4043923589        7.7736525660        6.3999299655       -0.0005218577        0.0001447018        0.0000309031
  O         5.9531473175        7.7169361958        6.6801184801       -0.0000942360       -0.0000705252        0.0000035478
  O         7.8176906008        8.3975908557        5.4586361935        0.0002065584       -0.0001074295       -0.0000847729
  H         5.6040680678        8.4297189410        6.1039639657        0.0006244302        0.0010388262        0.0001943155
  H         9.0759188183        5.0520179157        8.0098051791       -0.0002344267        0.0000692717        0.0008923565
  H         7.7571460563        5.0296049371        6.9981297617       -0.0000400043       -0.0009440534       -0.0010846955
  H         9.1227223712        5.4991906725        6.2080849831        0.0000166033        0.0002802009        0.0005374800
  H         9.1786336996        7.6661118149        7.4389036659        0.0009142250        0.0009562431        0.0016505574
  O         7.8117697862        7.2831615047        8.7693979340        0.0002684582       -0.0000654841       -0.0000388234
  H         7.0104242403        6.6882086771        8.9447324712       -0.0002837204        0.0007251883       -0.0002091639
